10
CCCCl3.log	Energy: -963078.7370204
C          3.72580       -0.00346        0.00753
H          4.08524        1.03234       -0.02139
C          2.26934       -0.03104        0.02143
C          1.04469       -0.01307        0.01764
C         -0.39017        0.00660       -0.00401
Cl        -1.04980       -0.80684        1.48876
Cl        -1.00764        1.70538       -0.05061
Cl        -1.01563       -0.88627       -1.45331
H          4.11809       -0.51473       -0.87902
H          4.14085       -0.48030        0.90254
