8
CCl3.log	Energy: -915298.8792547
C          0.00039        0.00003        0.25175
C         -0.00077        0.00003        1.77050
H         -1.03012       -0.04876        2.13423
Cl         1.69410        0.08003       -0.36314
Cl        -0.91623        1.42667       -0.36369
Cl        -0.77756       -1.50672       -0.36363
H          0.55583       -0.86682        2.13517
H          0.47132        0.91568        2.13503
