8
CF3.log	Energy: -236941.2696881
F         -0.52939        0.21791        1.24092
C         -0.02218       -0.00002       -0.00008
F         -0.52968        0.96569       -0.80905
F         -0.52972       -1.18355       -0.43165
C          1.48280       -0.00005       -0.00016
H          1.84511       -0.17824       -1.01535
H          1.84518        0.96820        0.35311
H          1.84516       -0.79012        0.66173
