11
CH2CCl3.log	Energy: -939972.8107623
C          2.36496       -0.00010        0.78159
H          2.60374       -0.88777        0.18887
C         -0.12548       -0.00008        0.09279
C          0.90226        0.00000        1.22636
H          0.68785        0.88252        1.83870
H          0.68782       -0.88249        1.83866
Cl         0.05679        1.46836       -0.94026
Cl        -1.78657       -0.00009        0.80256
Cl         0.05681       -1.46819       -0.94045
H          3.00684       -0.00025        1.66882
H          2.60381        0.88766        0.18908
