8
CH2CCl3.log	Energy: -915374.5669870
H          0.02831       -1.02706        2.12674
C          0.00001       -0.00040        1.76595
C          0.00001       -0.00058        0.25367
H          0.87467        0.53745        2.12736
H         -0.90296        0.48845        2.12737
Cl         1.48101       -0.80128       -0.36284
Cl        -0.04640        1.68333       -0.36251
Cl        -1.43462       -0.88163       -0.36284
