17
CH2CMe3.log	Energy: -124166.4648128
H          0.97512        1.01980       -1.65997
C          0.83996        1.14274       -0.58289
C         -0.00001       -0.00002       -0.00003
H          0.35870        2.10874       -0.41333
H          1.83000        1.17576       -0.12220
C         -1.37915       -0.01382       -0.66994
H         -1.90558        0.92872       -0.50256
H         -1.28938       -0.16079       -1.74877
H         -2.00002       -0.81996       -0.27220
C          0.70655       -1.33631       -0.25714
H          0.12866       -2.16973        0.14903
H          0.83880       -1.51013       -1.32757
H          1.69400       -1.35372        0.20994
C         -0.16734        0.20742        1.50999
H         -0.66921        1.15431        1.72223
H         -0.76329       -0.59445        1.95199
H          0.80212        0.22135        2.01344
