21
cHex_eq.log	Energy: -172712.2179356
C          1.90276       -0.00000       -0.28790
C          1.19352        1.26654        0.21155
C         -0.29367        1.26186       -0.16936
C         -1.01742        0.00001        0.33063
C         -0.29366       -1.26185       -0.16936
H          1.90772       -0.00001       -1.38857
H          2.95315        0.00000        0.03134
H          1.68450        2.16243       -0.19039
H          1.28531        1.32296        1.30685
H         -0.79062        2.15795        0.22682
H         -0.38751        1.31126       -1.26587
H         -0.96338        0.00000        1.43189
H         -0.38750       -1.31125       -1.26587
H         -0.79064       -2.15794        0.22682
C          1.19352       -1.26654        0.21155
H          1.28531       -1.32296        1.30685
H          1.68450       -2.16243       -0.19039
C         -2.49438       -0.00001       -0.07408
H         -2.59811        0.00005       -1.16746
H         -3.01334       -0.88720        0.30988
H         -3.01339        0.88713        0.30996
