6
CN.log	Energy:  -83312.2060133
N         -1.44094        0.00015       -0.00002
C         -0.28013       -0.00032        0.00005
C          1.18146        0.00007       -0.00001
H          1.55978       -1.01659        0.14644
H          1.55931        0.38167       -0.95382
H          1.55952        0.63541        0.80722
