11
Et.log	Energy:  -74772.9798336
C          1.27520       -0.26052       -0.00000
H          1.31615       -0.90918        0.88462
C         -1.27529       -0.26046       -0.00001
H         -1.31704       -0.90776       -0.88554
H         -1.31685       -0.90838        0.88511
H         -2.17627        0.36469        0.00031
C          0.00008        0.58873        0.00002
H          0.00017        1.24856       -0.87863
H          0.00015        1.24825        0.87884
H          2.17634        0.36446        0.00132
H          1.31738       -0.90713       -0.88606
