8
GeCl3.log	Energy: -2193578.2363064
C          0.00003        0.00050        2.16231
H          0.09869        1.03015        2.51485
Ge        -0.00001        0.00005        0.24095
Cl         1.83186        0.83565       -0.55368
Cl        -1.63977        1.16835       -0.55371
Cl        -0.19209       -2.00439       -0.55323
H          0.84233       -0.59933        2.51560
H         -0.94091       -0.42847        2.51548
