17
GeMe3.log	Energy: -1402317.5674513
C         -0.93977        0.99948        1.39130
H         -0.32469        1.83037        1.75449
C          0.40173        1.18909       -1.49745
H          1.03070        2.02483       -1.17103
H          0.93363        0.64979       -2.28918
H         -0.51976        1.60095       -1.92389
C          1.66571       -0.71827        0.72629
H          2.20903       -1.28566       -0.03756
H          2.31588        0.09032        1.07856
H          1.46429       -1.38725        1.57039
C         -1.12770       -1.47025       -0.62009
H         -2.07014       -1.08996       -1.02971
H         -0.62089       -2.04386       -1.40416
H         -1.36373       -2.15249        0.20420
Ge         0.00000       -0.00002       -0.00002
H         -1.17562        0.35110        2.24253
H         -1.87862        1.41222        1.00553
