14
iPr.log	Energy:  -99447.4228311
C         -1.40381       -0.40132        0.09616
H         -1.45399       -0.41632        1.19347
C          1.04947       -1.01505        0.09617
H          2.05148       -0.75027       -0.26347
H          1.08725       -1.05133        1.19348
H          0.81801       -2.02539       -0.26315
C          0.35435        1.41636        0.09617
H         -0.37609        2.15171       -0.26328
H          0.36709        1.46716        1.19348
H          1.34496        1.72121       -0.26332
C          0.00001       -0.00000       -0.37584
H          0.00005        0.00001       -1.47654
H         -1.67578       -1.40128       -0.26382
H         -2.16303        0.30455       -0.26277
