8
PbCl3.log	Energy: -1012593.2336376
C          0.00388       -0.00121        2.42589
H         -0.84121        0.61070        2.72363
Pb         0.00006       -0.00001        0.19219
Cl         2.03380        0.93477       -0.75618
Cl        -1.82747        1.29498       -0.75238
Cl        -0.20880       -2.22903       -0.75496
H          0.95735        0.42495        2.72006
H         -0.10279       -1.03977        2.72132
