17
PbMe3.log	Energy: -221283.9387355
C          1.47975        1.60378       -0.57303
H          0.95554        2.40510       -1.08998
C         -1.56844        0.87648        1.36446
H         -2.08372        1.68197        0.84501
H         -2.27981        0.09924        1.63649
H         -1.08657        1.26446        2.25968
C         -0.98873       -0.81008       -1.85895
H         -1.70074       -1.58305       -1.57662
H         -1.50687       -0.00069       -2.36940
H         -0.22817       -1.23118       -2.51346
C          1.07739       -1.67022        1.06742
H          1.55464       -1.27335        1.96122
H          0.35894       -2.43928        1.34400
H          1.83020       -2.09096        0.40379
Pb         0.00000        0.00000        0.00001
H          2.23509        1.17491       -1.22852
H          1.95128        1.99291        0.32718
