8
PCl3+.log	Energy: -1105451.0050420
C         -0.00002        0.00044        2.02808
H         -0.02137        1.03708        2.38056
P          0.00000        0.00003        0.22852
Cl        -1.63803        0.90045       -0.44599
Cl         1.59895        0.96816       -0.44598
Cl         0.03909       -1.86890       -0.44563
H          0.90829       -0.49920        2.38111
H         -0.88701       -0.53614        2.38109
