17
SnMe3.log	Energy: -234763.8478529
C          0.39400        1.48946        1.52188
H          1.38626        1.33953        1.94701
H          0.34511        2.48949        1.09133
H         -0.34381        1.41582        2.32064
C          1.47911        0.16664       -1.57303
H          1.43841        1.15782       -2.02437
H          2.47839        0.00707       -1.16834
H          1.29159       -0.57808       -2.34635
C         -1.97500        0.31982       -0.82897
H         -2.72912        0.23867       -0.04633
H         -2.03950        1.31183       -1.27570
H         -2.18592       -0.42428       -1.59685
Sn        -0.00004        0.00000       -0.00005
C          0.10207       -1.97594        0.88036
H          1.09278       -2.15025        1.29978
H         -0.63670       -2.07213        1.67583
H         -0.09658       -2.73546        0.12441
