8
SO2Me.log	Energy: -369756.1465043
H          0.19492       -0.00000        1.57166
S          0.18776        0.00000        0.20604
O          0.74057       -1.25559       -0.22769
O          0.74056        1.25559       -0.22769
C         -1.56244       -0.00001       -0.11039
H         -1.99950       -0.90118        0.31563
H         -1.99950        0.90116        0.31564
H         -1.67456        0.00000       -1.19427
