11
SO2Me.log	Energy: -394345.8767557
C         -1.42020        0.92602        0.00003
H         -2.30579        0.28597        0.00109
S         -0.00002       -0.19250        0.00001
O         -0.00040       -0.92235       -1.27982
O         -0.00000       -0.92195        1.28008
C          1.42055        0.92554       -0.00027
H          1.39770        1.53818       -0.90397
H          1.39791        1.53830        0.90336
H          2.30598        0.28524       -0.00028
H         -1.39770        1.53791       -0.90419
H         -1.39670        1.53943        0.90319
