17
tBu.log	Energy: -124122.4019413
C         -1.22970        0.80637        0.45264
C         -0.00001        0.00001        0.00003
C          0.66292        0.70410       -1.19667
C         -0.43916       -1.41463       -0.41620
C          1.00596       -0.09585        1.16024
H         -0.94561        1.82197        0.75616
H         -1.96564        0.89112       -0.35696
H         -1.72367        0.32619        1.30685
H          0.98703        1.71751       -0.92794
H          1.54488        0.14960       -1.54155
H         -0.03332        0.78676       -2.04086
H         -1.15863       -1.37674       -1.24396
H         -0.91629       -1.94155        0.41984
H          0.41965       -2.01364       -0.74467
H          0.55929       -0.59515        2.02938
H          1.89530       -0.66692        0.86493
H          1.33697        0.90082        1.47857
