14
tBu.log	Energy:  -99483.3298272
H          0.00000        0.00000       -1.46975
C         -0.00001        0.00000       -0.37344
C          0.53219       -1.35426        0.09565
C         -1.43894        0.21624        0.09565
C          0.90675        1.13802        0.09565
H          1.54930       -1.52720       -0.26245
H          0.55107       -1.40305        1.18826
H         -0.09473       -2.17346       -0.26288
H         -2.09726       -0.57808       -0.26257
H         -1.83486        1.16883       -0.26280
H         -1.49071        0.22418        1.18826
H          0.54824        2.10528       -0.26283
H          0.93923        1.17908        1.18826
H          1.92973        1.00439       -0.26253
