7
CCCCl3.log	Energy: -938481.2007369
H          3.74403       -0.00118        0.00172
C          2.68119       -0.00017        0.00049
C          1.48399       -0.00019        0.00056
C          0.04550        0.00020       -0.00034
Cl        -0.56824        0.13499       -1.68331
Cl        -0.56922       -1.52522        0.72462
Cl        -0.56889        1.39036        0.95834
