18
cHex_eq.log	Energy: -148088.0745598
H         -0.08326        2.48607        0.14328
C         -0.04886        1.45909       -0.22936
C          0.04886       -1.45914        0.22917
C         -1.23931       -0.77184       -0.22916
C         -1.28814        0.68720        0.22925
C          1.23927        0.77183        0.22925
H          0.05102       -1.52326        1.32337
H          0.08326       -2.48610       -0.14331
H         -2.11157       -1.31523        0.14303
H         -1.29369       -0.80566       -1.32339
H         -2.19471        1.17103       -0.14304
H         -1.34452        0.71753        1.32346
H         -0.05101        1.52319       -1.32346
H          1.29350        0.80587        1.32346
H          2.11145        1.31523       -0.14304
C          1.28817       -0.68721       -0.22916
H          1.34469       -0.71731       -1.32339
H          2.19484       -1.17102        0.14303
