14
PbMe3.log	Energy: -196597.3658213
H         -0.00015        0.00002       -1.96120
Pb        -0.00003        0.00001       -0.17771
C          0.97873       -1.88365        0.57246
H          2.00246       -1.92374        0.20699
H          0.97399       -1.87258        1.66037
H          0.42208       -2.74439        0.20849
C          1.14216        1.78927        0.57248
H          1.13606        1.77897        1.66039
H          2.16555        1.73800        0.20743
H          0.66444        2.69601        0.20805
C         -2.12066        0.09433        0.57257
H         -2.66750       -0.77185        0.20665
H         -2.10867        0.09231        1.66048
H         -2.58753        1.00709        0.20908
